%nprocshared=32
# ub3lyp/6-31G* force em=gd3

TS

0 1
 C                  1.88497600   -0.79797700    0.48491800
 H                  1.70616100   -1.26722000    1.45714400
 H                  2.84420400   -1.18962400    0.10547200
 C                  0.74635300    0.10931500   -1.36700200
 H                  0.27713300    0.18599100   -2.33935500
 C                  0.80361600   -1.05643100   -0.56036200
 H                  0.70683700   -2.04533100   -1.00401700
 C                  1.38213100    1.17304300   -0.66872300
 H                  1.36784600    2.21124100   -0.98557400
 C                  1.92621700    0.70704200    0.49850900
 H                  2.45630600    1.29499100    1.23897100
 C                 -0.74635300    0.10931500    1.36700200
 C                 -0.80361600   -1.05643100    0.56036200
 C                 -1.92621700    0.70704300   -0.49850900
 H                 -0.27713300    0.18599000    2.33935500
 H                 -0.70683700   -2.04533100    1.00401600
 H                 -2.45630500    1.29499200   -1.23897100
 C                 -1.38213000    1.17304200    0.66872400
 H                 -1.36784600    2.21124100    0.98557500
 C                 -1.88497600   -0.79797700   -0.48491900
 H                 -1.70616100   -1.26722000   -1.45714400
 H                 -2.84420500   -1.18962300   -0.10547300
